base_code/Iris_Codes/case56customv2.m
function mpc = case56custom
%CASE56CUSTOM    Power flow data for SCE 56 bus case.
%   Please see CASEFORMAT for details on the case file format.
%   This data was transcribed from Farivar et al. 2011
%   (http://www.its.caltech.edu/~mfarivar/PES2012_Farivar.pdf) 
%   on 26-Jan-2013 by Cristofer Flowers, rev 1.0
%   See end of file for warnings generated during conversion.
%
%   
%   
%  
%   MATPOWER
%   $Id: case56custom.m,v 1.0 2012/02/26 18:08:15 ray Exp $

%% MATPOWER Case Format : Version 2
mpc.version = '2';

%%-----  Power Flow Data  -----%%
%% system MVA base
mpc.baseMVA = 1;

%% bus data
%	bus_i	type	Pd	Qd	Gs	Bs	area	Vm	Va	baseKV	zone	Vmax	Vmin
mpc.bus = [
	1	3	0		0		0	0	1	1	0	12	1	1.03	0.97;
	2	1	0   	0		0	0	1	1	0	12	1	1.03	0.97;
	3	1	0.0513  0.0248	0	0	1	1	0	12	1	1.03	0.97;
	4	1	0		0		0	0	1	1	0	12	1	1.03	0.97;
	5	1	0.1089  0.0527	0	0	1	1	0	12	1	1.03	0.97;
	6	1	0.0441  0.0214	0	0	1	1	0	12	1	1.03	0.97;
	7	1	0.0477  0.0231	0	0	1	1	0	12	1	1.03	0.97;
	8	1	0.0423  0.0205	0	0	1	1	0	12	1	1.03	0.97;
	9	1	0.0612  0.0296	0	0	1	1	0	12	1	1.03	0.97;
	10	1	0.0432  0.0209	0	0	1	1	0	12	1	1.03	0.97;
	11	1	0.0603  0.0292	0	0	1	1	0	12	1	1.03	0.97;
	12	1	0.0846  0.0410	0	0	1	1	0	12	1	1.03	0.97;
	13	1	0   	0   	0	0	1	1	0	12	1	1.03	0.97;
	14	1	0.0513  0.0248	0	0	1	1	0	12	1	1.03	0.97;
	15	1	0   	0   	0	0	1	1	0	12	1	1.03	0.97;
	16	1	0.0477  0.0231	0	0	1	1	0	12	1	1.03	0.97;
	17	1	0.0513  0.0248	0	0	1	1	0	12	1	1.03	0.97;
	18	1	0.1008  0.0488	0	0.6	1	1	0	12	1	1.03	0.97;
	19	1	0.0783  0.0379	0	0	1	1	0	12	1	1.03	0.97;
	20	1	0   	0		0	0	1	1	0	12	1	1.03	0.97;
	21	1	0   	0   	0	0.6	1	1	0	12	1	1.03	0.97;
	22	1	0.0567  0.0275	0	0	1	1	0	12	1	1.03	0.97;
	23	1	0   	0   	0	0	1	1	0	12	1	1.03	0.97;
	24	1	0.1215  0.0588	0	0	1	1	0	12	1	1.03	0.97;
	25	1	0.0900  0.0436	0	0	1	1	0	12	1	1.03	0.97;
	26	1	0   	0		0	0	1	1	0	12	1	1.03	0.97;
	27	1	0.0432  0.0209	0	0	1	1	0	12	1	1.03	0.97;
	28	1	0.0342  0.0166	0	0	1	1	0	12	1	1.03	0.97;
	29	1	0.0396  0.0192	0	0	1	1	0	12	1	1.03	0.97;
	30	1	0   	0		0	0.6	1	1	0	12	1	1.03	0.97;
	31	1	0.0477  0.0231	0	0	1	1	0	12	1	1.03	0.97;
	32	1	0.2007  0.0972	0	0	1	1	0	12	1	1.03	0.97;
	33	1	0.1107  0.0536	0	0	1	1	0	12	1	1.03	0.97;
	34	1	0.0603  0.0292	0	0	1	1	0	12	1	1.03	0.97;
	35	1	0.0846  0.0410	0	0	1	1	0	12	1	1.03	0.97;
	36	1	0.0873  0.0423	0	0	1	1	0	12	1	1.03	0.97;
	37	1	0.2529  0.1225	0	0	1	1	0	12	1	1.03	0.97;
	38	1	0.1053  0.0510	0	0	1	1	0	12	1	1.03	0.97;
	39	1	0.1179  0.0571	0	0	1	1	0	12	1	1.03	0.97;
	40	1	0.0270  0.0131	0	0	1	1	0	12	1	1.03	0.97;
	41	1	0.0414  0.0201	0	0	1	1	0	12	1	1.03	0.97;
	42	1	0.0486  0.0235	0	0	1	1	0	12	1	1.03	0.97;
	43	1	0.0747  0.0362	0	0	1	1	0	12	1	1.03	0.97;
	44	1	0.0513  0.0248	0	0	1	1	0	12	1	1.03	0.97;
	45	1	0	  	0   	0	0	1	1	0	12	1	1.03	0.97;
	46	1	0.1206  0.0584	0	0	1	1	0	12	1	1.03	0.97;
	47	1	0.0405  0.0196	0	0	1	1	0	12	1	1.03	0.97;
	48	1	0.1764  0.0854	0	0	1	1	0	12	1	1.03	0.97;
	49	1	0   	0   	0	0	1	1	0	12	1	1.03	0.97;
	50	1	0.0405  0.0196	0	0	1	1	0	12	1	1.03	0.97;
	51	1	0   	0   	0	0	1	1	0	12	1	1.03	0.97;
	52	1	0.2835  0.1373	0	0	1	1	0	12	1	1.03	0.97;
	53	1	0   	0   	0	0.6	1	1	0	12	1	1.03	0.97;
	54	1	0.0549  0.0266	0	0	1	1	0	12	1	1.03	0.97;
	55	1	0.0495  0.0240	0	0	1	1	0	12	1	1.03	0.97;
	56	1	0.1170  0.0567	0	0	1	1	0	12	1	1.03	0.97;
];

%% generator data
%	bus	Pg	Qg	Qmax	Qmin	Vg	mBase	status	Pmax	Pmin	Pc1	Pc2	Qc1min	Qc1max	Qc2min	Qc2max	ramp_agc	ramp_10	ramp_30	ramp_q	apf
mpc.gen = [
	1	0	0	30	-30	1	1	1	30	0	0	0	0	0	0	0	0	0	0	0	0;
	];

%% branch data
%	fbus	tbus	r	x	b	rateA	rateB	rateC	ratio	angle	status	angmin	angmax
mpc.branch = [
    1   2   0.0011   0.0027   0   9900   0   0   0   0   1   -360   360;
    2   3   0.0057   0.0022   0   9900   0   0   0   0   1   -360   360;
    2   4   0.0010   0.0024   0   9900   0   0   0   0   1   -360   360;
    4   5   0.0071   0.0029   0   9900   0   0   0   0   1   -360   360;
    4   6   0.0051   0.0032   0   9900   0   0   0   0   1   -360   360;
    4   7   0.0037   0.0033   0   9900   0   0   0   0   1   -360   360;
    7   8   0.0025   0.0022   0   9900   0   0   0   0   1   -360   360;
    8   9   0.0141   0.0055   0   9900   0   0   0   0   1   -360   360;
    8   10  0.0035   0.0031   0   9900   0   0   0   0   1   -360   360;
    10  11  0.0026   0.0023   0   9900   0   0   0   0   1   -360   360;
    11  12  0.0099   0.0069   0   9900   0   0   0   0   1   -360   360;
    11  13  0.0030   0.0026   0   9900   0   0   0   0   1   -360   360;
    13  14  0.0047   0.0018   0   9900   0   0   0   0   1   -360   360;
    13  15  0.0032   0.0028   0   9900   0   0   0   0   1   -360   360;
    15  16  0.0070   0.0027   0   9900   0   0   0   0   1   -360   360;
    15  17  0.0011   0.0009   0   9900   0   0   0   0   1   -360   360;
    17  18  0.0067   0.0050   0   9900   0   0   0   0   1   -360   360;
    18  19  0.0131   0.0050   0   9900   0   0   0   0   1   -360   360;
    4   20  0.0010   0.0023   0   9900   0   0   0   0   1   -360   360;
    20  21  0.0017   0.0007   0   9900   0   0   0   0   1   -360   360;
    21  22  0.0126   0.0048   0   9900   0   0   0   0   1   -360   360;
    20  23  0.0016   0.0038   0   9900   0   0   0   0   1   -360   360;
    23  24  0.0009   0.0002   0   9900   0   0   0   0   1   -360   360;
    23  25  0.0020   0.0048   0   9900   0   0   0   0   1   -360   360;
    25  26  0.0012   0.0029   0   9900   0   0   0   0   1   -360   360;
    26  27  0.0029   0.0027   0   9900   0   0   0   0   1   -360   360;
    27  28  0.0015   0.0014   0   9900   0   0   0   0   1   -360   360;
    28  29  0.0027   0.0026   0   9900   0   0   0   0   1   -360   360;
    29  30  0.0017   0.0016   0   9900   0   0   0   0   1   -360   360;
    30  31  0.0019   0.0018   0   9900   0   0   0   0   1   -360   360;
    26  32  0.0014   0.0034   0   9900   0   0   0   0   1   -360   360;
    32  33  0.0018   0.0005   0   9900   0   0   0   0   1   -360   360;
    32  34  0.0005   0.0012   0   9900   0   0   0   0   1   -360   360;
    34  35  0.0043   0.0019   0   9900   0   0   0   0   1   -360   360;
    34  36  0.0035   0.0015   0   9900   0   0   0   0   1   -360   360;
    36  37  0.0140   0.0058   0   9900   0   0   0   0   1   -360   360;
    34  38  0.0074   0.0028   0   9900   0   0   0   0   1   -360   360;
    38  39  0.0042   0.0017   0   9900   0   0   0   0   1   -360   360;
    39  40  0.0163   0.0067   0   9900   0   0   0   0   1   -360   360;
    34  41  0.0008   0.0019   0   9900   0   0   0   0   1   -360   360;
    41  42  0.0011   0.0027   0   9900   0   0   0   0   1   -360   360;
    42  43  0.0065   0.0027   0   9900   0   0   0   0   1   -360   360;
    42  44  0.0035   0.0011   0   9900   0   0   0   0   1   -360   360;
    42  45  0.0007   0.0014   0   9900   0   0   0   0   1   -360   360;
    42  46  0.0133   0.0053   0   9900   0   0   0   0   1   -360   360;
    41  47  0.0011   0.0026   0   9900   0   0   0   0   1   -360   360;
    47  48  0.0114   0.0047   0   9900   0   0   0   0   1   -360   360;
    47  49  0.0006   0.0014   0   9900   0   0   0   0   1   -360   360;
    49  50  0.0120   0.0049   0   9900   0   0   0   0   1   -360   360;
    49  51  0.0008   0.0019   0   9900   0   0   0   0   1   -360   360;
    51  52  0.0047   0.0019   0   9900   0   0   0   0   1   -360   360;
    51  53  0.0005   0.0012   0   9900   0   0   0   0   1   -360   360;
    53  54  0.0142   0.0054   0   9900   0   0   0   0   1   -360   360;
    53  55  0.0056   0.0023   0   9900   0   0   0   0   1   -360   360;
    53  56  0.0010   0.0024   0   9900   0   0   0   0   1   -360   360;
];

%%-----  OPF Data  -----%%
%% generator cost data
%	1	startup	shutdown	n	x1	y1	...	xn	yn
%	2	startup	shutdown	n	c(n-1)	...	c0
mpc.gencost = [
	2	0	0	3	0.0430293	20	0;
];

% Warnings from cdf2matp conversion:
%
% ***** Qmax = Qmin at generator at bus    1 (Qmax set to Qmin + 10)
% ***** area data conversion not yet implemented (creating dummy area data)
% ***** MVA limit of branch 1 - 2 not given, set to 9900
% ***** MVA limit of branch 1 - 5 not given, set to 9900
% ***** MVA limit of branch 2 - 3 not given, set to 9900
% ***** MVA limit of branch 2 - 4 not given, set to 9900
% ***** MVA limit of branch 2 - 5 not given, set to 9900
% ***** MVA limit of branch 3 - 4 not given, set to 9900
% ***** MVA limit of branch 4 - 5 not given, set to 9900
% ***** MVA limit of branch 4 - 7 not given, set to 9900
% ***** MVA limit of branch 4 - 9 not given, set to 9900
% ***** MVA limit of branch 5 - 6 not given, set to 9900
% ***** MVA limit of branch 6 - 11 not given, set to 9900
% ***** MVA limit of branch 6 - 12 not given, set to 9900
% ***** MVA limit of branch 6 - 13 not given, set to 9900
% ***** MVA limit of branch 7 - 8 not given, set to 9900
% ***** MVA limit of branch 7 - 9 not given, set to 9900
% ***** MVA limit of branch 9 - 10 not given, set to 9900
% ***** MVA limit of branch 9 - 14 not given, set to 9900
% ***** MVA limit of branch 10 - 11 not given, set to 9900
% ***** MVA limit of branch 12 - 13 not given, set to 9900
% ***** MVA limit of branch 13 - 14 not given, set to 9900
